*SPEF "IEEE 1481-1998"
*DESIGN "user_project_wrapper"
*DATE "Sat Jun 26 14:20:40 2021"
*VENDOR "AUC CSCE Department"
*PROGRAM "SPEF Extractor"
*VERSION "1.0"
*DESIGN_FLOW "PIN_CAP NONE"
*DIVIDER /
*DELIMITER :
*BUS_DELIMITER []
*T_UNIT 1.00000 NS
*C_UNIT 1.00000 PF
*R_UNIT 1.00000 OHM
*L_UNIT 1.00000 HENRY


*NAME_MAP
*0 analog_io[0]
*1 analog_io[10]
*2 analog_io[11]
*3 analog_io[12]
*4 analog_io[13]
*5 analog_io[14]
*6 analog_io[15]
*7 analog_io[16]
*8 analog_io[17]
*9 analog_io[18]
*10 analog_io[19]
*11 analog_io[1]
*12 analog_io[20]
*13 analog_io[21]
*14 analog_io[22]
*15 analog_io[23]
*16 analog_io[24]
*17 analog_io[25]
*18 analog_io[26]
*19 analog_io[27]
*20 analog_io[28]
*21 analog_io[2]
*22 analog_io[3]
*23 analog_io[4]
*24 analog_io[5]
*25 analog_io[6]
*26 analog_io[7]
*27 analog_io[8]
*28 analog_io[9]
*29 io_in[0]
*30 io_in[10]
*31 io_in[11]
*32 io_in[12]
*33 io_in[13]
*34 io_in[14]
*35 io_in[15]
*36 io_in[16]
*37 io_in[17]
*38 io_in[18]
*39 io_in[19]
*40 io_in[1]
*41 io_in[20]
*42 io_in[21]
*43 io_in[22]
*44 io_in[23]
*45 io_in[24]
*46 io_in[25]
*47 io_in[26]
*48 io_in[27]
*49 io_in[28]
*50 io_in[29]
*51 io_in[2]
*52 io_in[30]
*53 io_in[31]
*54 io_in[32]
*55 io_in[33]
*56 io_in[34]
*57 io_in[35]
*58 io_in[36]
*59 io_in[37]
*60 io_in[3]
*61 io_in[4]
*62 io_in[5]
*63 io_in[6]
*64 io_in[7]
*65 io_in[8]
*66 io_in[9]
*67 io_oeb[0]
*68 io_oeb[10]
*69 io_oeb[11]
*70 io_oeb[12]
*71 io_oeb[13]
*72 io_oeb[14]
*73 io_oeb[15]
*74 io_oeb[16]
*75 io_oeb[17]
*76 io_oeb[18]
*77 io_oeb[19]
*78 io_oeb[1]
*79 io_oeb[20]
*80 io_oeb[21]
*81 io_oeb[22]
*82 io_oeb[23]
*83 io_oeb[24]
*84 io_oeb[25]
*85 io_oeb[26]
*86 io_oeb[27]
*87 io_oeb[28]
*88 io_oeb[29]
*89 io_oeb[2]
*90 io_oeb[30]
*91 io_oeb[31]
*92 io_oeb[32]
*93 io_oeb[33]
*94 io_oeb[34]
*95 io_oeb[35]
*96 io_oeb[36]
*97 io_oeb[37]
*98 io_oeb[3]
*99 io_oeb[4]
*100 io_oeb[5]
*101 io_oeb[6]
*102 io_oeb[7]
*103 io_oeb[8]
*104 io_oeb[9]
*105 io_out[0]
*106 io_out[10]
*107 io_out[11]
*108 io_out[12]
*109 io_out[13]
*110 io_out[14]
*111 io_out[15]
*112 io_out[16]
*113 io_out[17]
*114 io_out[18]
*115 io_out[19]
*116 io_out[1]
*117 io_out[20]
*118 io_out[21]
*119 io_out[22]
*120 io_out[23]
*121 io_out[24]
*122 io_out[25]
*123 io_out[26]
*124 io_out[27]
*125 io_out[28]
*126 io_out[29]
*127 io_out[2]
*128 io_out[30]
*129 io_out[31]
*130 io_out[32]
*131 io_out[33]
*132 io_out[34]
*133 io_out[35]
*134 io_out[36]
*135 io_out[37]
*136 io_out[3]
*137 io_out[4]
*138 io_out[5]
*139 io_out[6]
*140 io_out[7]
*141 io_out[8]
*142 io_out[9]
*143 la_data_in[0]
*144 la_data_in[100]
*145 la_data_in[101]
*146 la_data_in[102]
*147 la_data_in[103]
*148 la_data_in[104]
*149 la_data_in[105]
*150 la_data_in[106]
*151 la_data_in[107]
*152 la_data_in[108]
*153 la_data_in[109]
*154 la_data_in[10]
*155 la_data_in[110]
*156 la_data_in[111]
*157 la_data_in[112]
*158 la_data_in[113]
*159 la_data_in[114]
*160 la_data_in[115]
*161 la_data_in[116]
*162 la_data_in[117]
*163 la_data_in[118]
*164 la_data_in[119]
*165 la_data_in[11]
*166 la_data_in[120]
*167 la_data_in[121]
*168 la_data_in[122]
*169 la_data_in[123]
*170 la_data_in[124]
*171 la_data_in[125]
*172 la_data_in[126]
*173 la_data_in[127]
*174 la_data_in[12]
*175 la_data_in[13]
*176 la_data_in[14]
*177 la_data_in[15]
*178 la_data_in[16]
*179 la_data_in[17]
*180 la_data_in[18]
*181 la_data_in[19]
*182 la_data_in[1]
*183 la_data_in[20]
*184 la_data_in[21]
*185 la_data_in[22]
*186 la_data_in[23]
*187 la_data_in[24]
*188 la_data_in[25]
*189 la_data_in[26]
*190 la_data_in[27]
*191 la_data_in[28]
*192 la_data_in[29]
*193 la_data_in[2]
*194 la_data_in[30]
*195 la_data_in[31]
*196 la_data_in[32]
*197 la_data_in[33]
*198 la_data_in[34]
*199 la_data_in[35]
*200 la_data_in[36]
*201 la_data_in[37]
*202 la_data_in[38]
*203 la_data_in[39]
*204 la_data_in[3]
*205 la_data_in[40]
*206 la_data_in[41]
*207 la_data_in[42]
*208 la_data_in[43]
*209 la_data_in[44]
*210 la_data_in[45]
*211 la_data_in[46]
*212 la_data_in[47]
*213 la_data_in[48]
*214 la_data_in[49]
*215 la_data_in[4]
*216 la_data_in[50]
*217 la_data_in[51]
*218 la_data_in[52]
*219 la_data_in[53]
*220 la_data_in[54]
*221 la_data_in[55]
*222 la_data_in[56]
*223 la_data_in[57]
*224 la_data_in[58]
*225 la_data_in[59]
*226 la_data_in[5]
*227 la_data_in[60]
*228 la_data_in[61]
*229 la_data_in[62]
*230 la_data_in[63]
*231 la_data_in[64]
*232 la_data_in[65]
*233 la_data_in[66]
*234 la_data_in[67]
*235 la_data_in[68]
*236 la_data_in[69]
*237 la_data_in[6]
*238 la_data_in[70]
*239 la_data_in[71]
*240 la_data_in[72]
*241 la_data_in[73]
*242 la_data_in[74]
*243 la_data_in[75]
*244 la_data_in[76]
*245 la_data_in[77]
*246 la_data_in[78]
*247 la_data_in[79]
*248 la_data_in[7]
*249 la_data_in[80]
*250 la_data_in[81]
*251 la_data_in[82]
*252 la_data_in[83]
*253 la_data_in[84]
*254 la_data_in[85]
*255 la_data_in[86]
*256 la_data_in[87]
*257 la_data_in[88]
*258 la_data_in[89]
*259 la_data_in[8]
*260 la_data_in[90]
*261 la_data_in[91]
*262 la_data_in[92]
*263 la_data_in[93]
*264 la_data_in[94]
*265 la_data_in[95]
*266 la_data_in[96]
*267 la_data_in[97]
*268 la_data_in[98]
*269 la_data_in[99]
*270 la_data_in[9]
*271 la_data_out[0]
*272 la_data_out[100]
*273 la_data_out[101]
*274 la_data_out[102]
*275 la_data_out[103]
*276 la_data_out[104]
*277 la_data_out[105]
*278 la_data_out[106]
*279 la_data_out[107]
*280 la_data_out[108]
*281 la_data_out[109]
*282 la_data_out[10]
*283 la_data_out[110]
*284 la_data_out[111]
*285 la_data_out[112]
*286 la_data_out[113]
*287 la_data_out[114]
*288 la_data_out[115]
*289 la_data_out[116]
*290 la_data_out[117]
*291 la_data_out[118]
*292 la_data_out[119]
*293 la_data_out[11]
*294 la_data_out[120]
*295 la_data_out[121]
*296 la_data_out[122]
*297 la_data_out[123]
*298 la_data_out[124]
*299 la_data_out[125]
*300 la_data_out[126]
*301 la_data_out[127]
*302 la_data_out[12]
*303 la_data_out[13]
*304 la_data_out[14]
*305 la_data_out[15]
*306 la_data_out[16]
*307 la_data_out[17]
*308 la_data_out[18]
*309 la_data_out[19]
*310 la_data_out[1]
*311 la_data_out[20]
*312 la_data_out[21]
*313 la_data_out[22]
*314 la_data_out[23]
*315 la_data_out[24]
*316 la_data_out[25]
*317 la_data_out[26]
*318 la_data_out[27]
*319 la_data_out[28]
*320 la_data_out[29]
*321 la_data_out[2]
*322 la_data_out[30]
*323 la_data_out[31]
*324 la_data_out[32]
*325 la_data_out[33]
*326 la_data_out[34]
*327 la_data_out[35]
*328 la_data_out[36]
*329 la_data_out[37]
*330 la_data_out[38]
*331 la_data_out[39]
*332 la_data_out[3]
*333 la_data_out[40]
*334 la_data_out[41]
*335 la_data_out[42]
*336 la_data_out[43]
*337 la_data_out[44]
*338 la_data_out[45]
*339 la_data_out[46]
*340 la_data_out[47]
*341 la_data_out[48]
*342 la_data_out[49]
*343 la_data_out[4]
*344 la_data_out[50]
*345 la_data_out[51]
*346 la_data_out[52]
*347 la_data_out[53]
*348 la_data_out[54]
*349 la_data_out[55]
*350 la_data_out[56]
*351 la_data_out[57]
*352 la_data_out[58]
*353 la_data_out[59]
*354 la_data_out[5]
*355 la_data_out[60]
*356 la_data_out[61]
*357 la_data_out[62]
*358 la_data_out[63]
*359 la_data_out[64]
*360 la_data_out[65]
*361 la_data_out[66]
*362 la_data_out[67]
*363 la_data_out[68]
*364 la_data_out[69]
*365 la_data_out[6]
*366 la_data_out[70]
*367 la_data_out[71]
*368 la_data_out[72]
*369 la_data_out[73]
*370 la_data_out[74]
*371 la_data_out[75]
*372 la_data_out[76]
*373 la_data_out[77]
*374 la_data_out[78]
*375 la_data_out[79]
*376 la_data_out[7]
*377 la_data_out[80]
*378 la_data_out[81]
*379 la_data_out[82]
*380 la_data_out[83]
*381 la_data_out[84]
*382 la_data_out[85]
*383 la_data_out[86]
*384 la_data_out[87]
*385 la_data_out[88]
*386 la_data_out[89]
*387 la_data_out[8]
*388 la_data_out[90]
*389 la_data_out[91]
*390 la_data_out[92]
*391 la_data_out[93]
*392 la_data_out[94]
*393 la_data_out[95]
*394 la_data_out[96]
*395 la_data_out[97]
*396 la_data_out[98]
*397 la_data_out[99]
*398 la_data_out[9]
*399 la_oenb[0]
*400 la_oenb[100]
*401 la_oenb[101]
*402 la_oenb[102]
*403 la_oenb[103]
*404 la_oenb[104]
*405 la_oenb[105]
*406 la_oenb[106]
*407 la_oenb[107]
*408 la_oenb[108]
*409 la_oenb[109]
*410 la_oenb[10]
*411 la_oenb[110]
*412 la_oenb[111]
*413 la_oenb[112]
*414 la_oenb[113]
*415 la_oenb[114]
*416 la_oenb[115]
*417 la_oenb[116]
*418 la_oenb[117]
*419 la_oenb[118]
*420 la_oenb[119]
*421 la_oenb[11]
*422 la_oenb[120]
*423 la_oenb[121]
*424 la_oenb[122]
*425 la_oenb[123]
*426 la_oenb[124]
*427 la_oenb[125]
*428 la_oenb[126]
*429 la_oenb[127]
*430 la_oenb[12]
*431 la_oenb[13]
*432 la_oenb[14]
*433 la_oenb[15]
*434 la_oenb[16]
*435 la_oenb[17]
*436 la_oenb[18]
*437 la_oenb[19]
*438 la_oenb[1]
*439 la_oenb[20]
*440 la_oenb[21]
*441 la_oenb[22]
*442 la_oenb[23]
*443 la_oenb[24]
*444 la_oenb[25]
*445 la_oenb[26]
*446 la_oenb[27]
*447 la_oenb[28]
*448 la_oenb[29]
*449 la_oenb[2]
*450 la_oenb[30]
*451 la_oenb[31]
*452 la_oenb[32]
*453 la_oenb[33]
*454 la_oenb[34]
*455 la_oenb[35]
*456 la_oenb[36]
*457 la_oenb[37]
*458 la_oenb[38]
*459 la_oenb[39]
*460 la_oenb[3]
*461 la_oenb[40]
*462 la_oenb[41]
*463 la_oenb[42]
*464 la_oenb[43]
*465 la_oenb[44]
*466 la_oenb[45]
*467 la_oenb[46]
*468 la_oenb[47]
*469 la_oenb[48]
*470 la_oenb[49]
*471 la_oenb[4]
*472 la_oenb[50]
*473 la_oenb[51]
*474 la_oenb[52]
*475 la_oenb[53]
*476 la_oenb[54]
*477 la_oenb[55]
*478 la_oenb[56]
*479 la_oenb[57]
*480 la_oenb[58]
*481 la_oenb[59]
*482 la_oenb[5]
*483 la_oenb[60]
*484 la_oenb[61]
*485 la_oenb[62]
*486 la_oenb[63]
*487 la_oenb[64]
*488 la_oenb[65]
*489 la_oenb[66]
*490 la_oenb[67]
*491 la_oenb[68]
*492 la_oenb[69]
*493 la_oenb[6]
*494 la_oenb[70]
*495 la_oenb[71]
*496 la_oenb[72]
*497 la_oenb[73]
*498 la_oenb[74]
*499 la_oenb[75]
*500 la_oenb[76]
*501 la_oenb[77]
*502 la_oenb[78]
*503 la_oenb[79]
*504 la_oenb[7]
*505 la_oenb[80]
*506 la_oenb[81]
*507 la_oenb[82]
*508 la_oenb[83]
*509 la_oenb[84]
*510 la_oenb[85]
*511 la_oenb[86]
*512 la_oenb[87]
*513 la_oenb[88]
*514 la_oenb[89]
*515 la_oenb[8]
*516 la_oenb[90]
*517 la_oenb[91]
*518 la_oenb[92]
*519 la_oenb[93]
*520 la_oenb[94]
*521 la_oenb[95]
*522 la_oenb[96]
*523 la_oenb[97]
*524 la_oenb[98]
*525 la_oenb[99]
*526 la_oenb[9]
*527 user_clock2
*528 user_irq[0]
*529 user_irq[1]
*530 user_irq[2]
*531 wb_clk_i
*532 wb_rst_i
*533 wbs_ack_o
*534 wbs_adr_i[0]
*535 wbs_adr_i[10]
*536 wbs_adr_i[11]
*537 wbs_adr_i[12]
*538 wbs_adr_i[13]
*539 wbs_adr_i[14]
*540 wbs_adr_i[15]
*541 wbs_adr_i[16]
*542 wbs_adr_i[17]
*543 wbs_adr_i[18]
*544 wbs_adr_i[19]
*545 wbs_adr_i[1]
*546 wbs_adr_i[20]
*547 wbs_adr_i[21]
*548 wbs_adr_i[22]
*549 wbs_adr_i[23]
*550 wbs_adr_i[24]
*551 wbs_adr_i[25]
*552 wbs_adr_i[26]
*553 wbs_adr_i[27]
*554 wbs_adr_i[28]
*555 wbs_adr_i[29]
*556 wbs_adr_i[2]
*557 wbs_adr_i[30]
*558 wbs_adr_i[31]
*559 wbs_adr_i[3]
*560 wbs_adr_i[4]
*561 wbs_adr_i[5]
*562 wbs_adr_i[6]
*563 wbs_adr_i[7]
*564 wbs_adr_i[8]
*565 wbs_adr_i[9]
*566 wbs_cyc_i
*567 wbs_dat_i[0]
*568 wbs_dat_i[10]
*569 wbs_dat_i[11]
*570 wbs_dat_i[12]
*571 wbs_dat_i[13]
*572 wbs_dat_i[14]
*573 wbs_dat_i[15]
*574 wbs_dat_i[16]
*575 wbs_dat_i[17]
*576 wbs_dat_i[18]
*577 wbs_dat_i[19]
*578 wbs_dat_i[1]
*579 wbs_dat_i[20]
*580 wbs_dat_i[21]
*581 wbs_dat_i[22]
*582 wbs_dat_i[23]
*583 wbs_dat_i[24]
*584 wbs_dat_i[25]
*585 wbs_dat_i[26]
*586 wbs_dat_i[27]
*587 wbs_dat_i[28]
*588 wbs_dat_i[29]
*589 wbs_dat_i[2]
*590 wbs_dat_i[30]
*591 wbs_dat_i[31]
*592 wbs_dat_i[3]
*593 wbs_dat_i[4]
*594 wbs_dat_i[5]
*595 wbs_dat_i[6]
*596 wbs_dat_i[7]
*597 wbs_dat_i[8]
*598 wbs_dat_i[9]
*599 wbs_dat_o[0]
*600 wbs_dat_o[10]
*601 wbs_dat_o[11]
*602 wbs_dat_o[12]
*603 wbs_dat_o[13]
*604 wbs_dat_o[14]
*605 wbs_dat_o[15]
*606 wbs_dat_o[16]
*607 wbs_dat_o[17]
*608 wbs_dat_o[18]
*609 wbs_dat_o[19]
*610 wbs_dat_o[1]
*611 wbs_dat_o[20]
*612 wbs_dat_o[21]
*613 wbs_dat_o[22]
*614 wbs_dat_o[23]
*615 wbs_dat_o[24]
*616 wbs_dat_o[25]
*617 wbs_dat_o[26]
*618 wbs_dat_o[27]
*619 wbs_dat_o[28]
*620 wbs_dat_o[29]
*621 wbs_dat_o[2]
*622 wbs_dat_o[30]
*623 wbs_dat_o[31]
*624 wbs_dat_o[3]
*625 wbs_dat_o[4]
*626 wbs_dat_o[5]
*627 wbs_dat_o[6]
*628 wbs_dat_o[7]
*629 wbs_dat_o[8]
*630 wbs_dat_o[9]
*631 wbs_sel_i[0]
*632 wbs_sel_i[1]
*633 wbs_sel_i[2]
*634 wbs_sel_i[3]
*635 wbs_stb_i
*636 wbs_we_i
*637 adc_out_0\[0\]
*638 adc_out_0\[10\]
*639 adc_out_0\[11\]
*640 adc_out_0\[12\]
*641 adc_out_0\[13\]
*642 adc_out_0\[14\]
*643 adc_out_0\[15\]
*644 adc_out_0\[16\]
*645 adc_out_0\[17\]
*646 adc_out_0\[18\]
*647 adc_out_0\[19\]
*648 adc_out_0\[1\]
*649 adc_out_0\[20\]
*650 adc_out_0\[21\]
*651 adc_out_0\[22\]
*652 adc_out_0\[23\]
*653 adc_out_0\[24\]
*654 adc_out_0\[25\]
*655 adc_out_0\[26\]
*656 adc_out_0\[27\]
*657 adc_out_0\[28\]
*658 adc_out_0\[29\]
*659 adc_out_0\[2\]
*660 adc_out_0\[30\]
*661 adc_out_0\[31\]
*662 adc_out_0\[3\]
*663 adc_out_0\[4\]
*664 adc_out_0\[5\]
*665 adc_out_0\[6\]
*666 adc_out_0\[7\]
*667 adc_out_0\[8\]
*668 adc_out_0\[9\]
*669 adc_out_1\[0\]
*670 adc_out_1\[10\]
*671 adc_out_1\[11\]
*672 adc_out_1\[12\]
*673 adc_out_1\[13\]
*674 adc_out_1\[14\]
*675 adc_out_1\[15\]
*676 adc_out_1\[16\]
*677 adc_out_1\[17\]
*678 adc_out_1\[18\]
*679 adc_out_1\[19\]
*680 adc_out_1\[1\]
*681 adc_out_1\[20\]
*682 adc_out_1\[21\]
*683 adc_out_1\[22\]
*684 adc_out_1\[23\]
*685 adc_out_1\[24\]
*686 adc_out_1\[25\]
*687 adc_out_1\[26\]
*688 adc_out_1\[27\]
*689 adc_out_1\[28\]
*690 adc_out_1\[29\]
*691 adc_out_1\[2\]
*692 adc_out_1\[30\]
*693 adc_out_1\[31\]
*694 adc_out_1\[3\]
*695 adc_out_1\[4\]
*696 adc_out_1\[5\]
*697 adc_out_1\[6\]
*698 adc_out_1\[7\]
*699 adc_out_1\[8\]
*700 adc_out_1\[9\]
*701 adc_out_2\[0\]
*702 adc_out_2\[10\]
*703 adc_out_2\[11\]
*704 adc_out_2\[12\]
*705 adc_out_2\[13\]
*706 adc_out_2\[14\]
*707 adc_out_2\[15\]
*708 adc_out_2\[16\]
*709 adc_out_2\[17\]
*710 adc_out_2\[18\]
*711 adc_out_2\[19\]
*712 adc_out_2\[1\]
*713 adc_out_2\[20\]
*714 adc_out_2\[21\]
*715 adc_out_2\[22\]
*716 adc_out_2\[23\]
*717 adc_out_2\[24\]
*718 adc_out_2\[25\]
*719 adc_out_2\[26\]
*720 adc_out_2\[27\]
*721 adc_out_2\[28\]
*722 adc_out_2\[29\]
*723 adc_out_2\[2\]
*724 adc_out_2\[30\]
*725 adc_out_2\[31\]
*726 adc_out_2\[3\]
*727 adc_out_2\[4\]
*728 adc_out_2\[5\]
*729 adc_out_2\[6\]
*730 adc_out_2\[7\]
*731 adc_out_2\[8\]
*732 adc_out_2\[9\]
*733 en\[0\]
*734 en\[1\]
*735 en\[2\]
*736 m2w_data0\[0\]
*737 m2w_data0\[10\]
*738 m2w_data0\[11\]
*739 m2w_data0\[12\]
*740 m2w_data0\[13\]
*741 m2w_data0\[14\]
*742 m2w_data0\[15\]
*743 m2w_data0\[16\]
*744 m2w_data0\[17\]
*745 m2w_data0\[18\]
*746 m2w_data0\[19\]
*747 m2w_data0\[1\]
*748 m2w_data0\[20\]
*749 m2w_data0\[21\]
*750 m2w_data0\[22\]
*751 m2w_data0\[23\]
*752 m2w_data0\[24\]
*753 m2w_data0\[25\]
*754 m2w_data0\[26\]
*755 m2w_data0\[27\]
*756 m2w_data0\[28\]
*757 m2w_data0\[29\]
*758 m2w_data0\[2\]
*759 m2w_data0\[30\]
*760 m2w_data0\[31\]
*761 m2w_data0\[3\]
*762 m2w_data0\[4\]
*763 m2w_data0\[5\]
*764 m2w_data0\[6\]
*765 m2w_data0\[7\]
*766 m2w_data0\[8\]
*767 m2w_data0\[9\]
*768 m2w_data1\[0\]
*769 m2w_data1\[10\]
*770 m2w_data1\[11\]
*771 m2w_data1\[12\]
*772 m2w_data1\[13\]
*773 m2w_data1\[14\]
*774 m2w_data1\[15\]
*775 m2w_data1\[16\]
*776 m2w_data1\[17\]
*777 m2w_data1\[18\]
*778 m2w_data1\[19\]
*779 m2w_data1\[1\]
*780 m2w_data1\[20\]
*781 m2w_data1\[21\]
*782 m2w_data1\[22\]
*783 m2w_data1\[23\]
*784 m2w_data1\[24\]
*785 m2w_data1\[25\]
*786 m2w_data1\[26\]
*787 m2w_data1\[27\]
*788 m2w_data1\[28\]
*789 m2w_data1\[29\]
*790 m2w_data1\[2\]
*791 m2w_data1\[30\]
*792 m2w_data1\[31\]
*793 m2w_data1\[3\]
*794 m2w_data1\[4\]
*795 m2w_data1\[5\]
*796 m2w_data1\[6\]
*797 m2w_data1\[7\]
*798 m2w_data1\[8\]
*799 m2w_data1\[9\]
*800 oversample\[0\]
*801 oversample\[1\]
*802 oversample\[2\]
*803 oversample\[3\]
*804 oversample\[4\]
*805 oversample\[5\]
*806 oversample\[6\]
*807 oversample\[7\]
*808 oversample\[8\]
*809 oversample\[9\]
*810 phase0\[0\]
*811 phase0\[10\]
*812 phase0\[1\]
*813 phase0\[2\]
*814 phase0\[3\]
*815 phase0\[4\]
*816 phase0\[5\]
*817 phase0\[7\]
*818 phase0\[8\]
*819 phase0\[9\]
*820 phase1\[0\]
*821 phase1\[10\]
*822 phase1\[1\]
*823 phase1\[2\]
*824 phase1\[3\]
*825 phase1\[4\]
*826 phase1\[5\]
*827 phase1\[7\]
*828 phase1\[8\]
*829 phase1\[9\]
*830 phase2\[0\]
*831 phase2\[10\]
*832 phase2\[1\]
*833 phase2\[2\]
*834 phase2\[3\]
*835 phase2\[4\]
*836 phase2\[5\]
*837 phase2\[7\]
*838 phase2\[8\]
*839 phase2\[9\]
*840 raddr\[0\]
*841 raddr\[1\]
*842 raddr\[2\]
*843 raddr\[3\]
*844 raddr\[4\]
*845 raddr\[5\]
*846 raddr\[6\]
*847 raddr\[7\]
*848 raddr\[8\]
*849 renb\[0\]
*850 renb\[1\]
*851 sinc3_dvalid\[0\]
*852 sinc3_dvalid\[1\]
*853 sinc3_dvalid\[2\]
*854 vco_enb\[0\]
*855 vco_enb\[1\]
*856 vco_enb\[2\]
*857 w2m_data\[0\]
*858 w2m_data\[10\]
*859 w2m_data\[11\]
*860 w2m_data\[12\]
*861 w2m_data\[13\]
*862 w2m_data\[14\]
*863 w2m_data\[15\]
*864 w2m_data\[16\]
*865 w2m_data\[17\]
*866 w2m_data\[18\]
*867 w2m_data\[19\]
*868 w2m_data\[1\]
*869 w2m_data\[20\]
*870 w2m_data\[21\]
*871 w2m_data\[22\]
*872 w2m_data\[23\]
*873 w2m_data\[24\]
*874 w2m_data\[25\]
*875 w2m_data\[26\]
*876 w2m_data\[27\]
*877 w2m_data\[28\]
*878 w2m_data\[29\]
*879 w2m_data\[2\]
*880 w2m_data\[30\]
*881 w2m_data\[31\]
*882 w2m_data\[3\]
*883 w2m_data\[4\]
*884 w2m_data\[5\]
*885 w2m_data\[6\]
*886 w2m_data\[7\]
*887 w2m_data\[8\]
*888 w2m_data\[9\]
*889 waddr\[0\]
*890 waddr\[1\]
*891 waddr\[2\]
*892 waddr\[3\]
*893 waddr\[4\]
*894 waddr\[5\]
*895 waddr\[6\]
*896 waddr\[7\]
*897 waddr\[8\]
*898 wenb\[0\]
*899 wenb\[1\]
*900 wmask\[0\]
*901 wmask\[1\]
*902 wmask\[2\]
*903 wmask\[3\]

*D_NET *0 0
*CONN
*P analog_io[0] O
*CAP
*RES
*END

*D_NET *1 0.05098253668812
*CONN
*P analog_io[10] O
*I vco_adc_0:phase_in[6] I
*I vco_0:p[6] O
*CAP
0 *1:1 0.0012949773337799998
1 *1:3 0.00480611634208
2 *1:5 0.0040597374957
3 *1:6 0.00015388997648
4 *1:7 0.00571756710494
5 *1:9 0.01299215375066
6 *1:11 0.02195809468448
7 *1:4 0
8 *1:12 0
*RES
0 *1:1 *1:2 14.723214285714283
1 *1:3 *1:4 50.51785714285714
2 *1:5 vco_adc_0:phase_in[6] 1.8482142857142854
3 *1:6 *1:7 1.6428571428571428
4 *1:7 *1:8 65.41964285714285
5 *1:9 *1:10 0.8214285714285714
6 *1:5 *1:10 44.44642857142857
7 *1:11 *1:12 231.23214285714286
8 *1:9 *1:13 147.86607142857142
9 *1:3 *1:1 0
10 *1:4 *1:8 0
11 *1:11 *1:14 0
12 *1:12 *1:13 0
*END

*D_NET *2 0
*CONN
*P analog_io[11] O
*CAP
*RES
*END

*D_NET *3 0.039483156364420006
*CONN
*P analog_io[12] O
*I vco_1:input_analog O
*CAP
9 *3:1 0.03084593800736
10 vco_1:input_analog 0.0011479875956999998
11 *3:4 0.00608832313366
12 *3:6 0.0014009076277000003
13 *3:2 0
*RES
13 *3:1 *3:2 324.875
14 vco_1:input_analog *3:3 2.0539
15 *3:4 *3:5 69.66964285714285
16 *3:6 *3:7 15.9375
17 *3:1 *3:5 0
18 *3:2 *3:6 0
19 *3:4 *3:3 0
*END

*D_NET *4 0.04753692536894
*CONN
*P analog_io[13] O
*I vco_adc_1:phase_in[6] I
*I vco_1:p[6] O
*CAP
14 *4:1 0.006114805707140001
15 *4:3 0.0040418228136400005
16 *4:4 0.0008977387315800001
17 *4:6 0.013471955670179999
18 *4:8 0.0230106024464
19 *4:11 0
20 *4:9 0
*RES
20 *4:1 *4:2 69.97321428571428
21 *4:3 vco_adc_1:phase_in[6] 1.6428571428571428
22 *4:4 *4:5 10.169642857142856
23 *4:6 *4:7 3.2857142857142856
24 *4:3 *4:7 44.44642857142857
25 *4:8 *4:9 242.32142857142853
26 *4:6 *4:10 150.9017857142857
27 *4:11 *4:1 0
28 *4:8 *4:5 0
29 *4:9 *4:10 0
*END

*D_NET *5 0
*CONN
*P analog_io[14] O
*CAP
*RES
*END

*D_NET *6 0.01961432765498
*CONN
*P analog_io[15] O
*I vco_2:input_analog I
*CAP
21 vco_2:input_analog 0.0011479875956999998
22 *6:2 0.006935765485020001
23 *6:4 0.0011890470398600002
24 *6:6 0.010341527534400001
25 *6:7 0
*RES
30 vco_2:input_analog *6:1 2.0539
31 *6:2 *6:3 79.38392857142856
32 *6:4 *6:5 13.508928571428571
33 *6:6 *6:7 108.83928571428571
34 *6:2 *6:1 0
35 *6:6 *6:3 0
36 *6:7 *6:4 0
*END

*D_NET *7 0.04343217215498
*CONN
*P analog_io[16] O
*I vco_adc_2:phase_in[6] I
*I vco_2:p[6] O
*CAP
26 *7:1 0.0040776521777600005
27 *7:2 0.0012155296133400002
28 *7:4 0.0030256914006200003
29 vco_2:p[6] 0.00011806061236
30 *7:6 0.00357637314916
31 *7:7 4.640188412000001e-05
32 *7:8 0.01267747846578
33 *7:11 0.008392439086400002
34 *7:13 0.01030254576544
35 *7:12 0
36 *7:14 0
*RES
37 *7:1 vco_adc_2:phase_in[6] 2.0535714285714284
38 *7:2 *7:3 13.8125
39 *7:4 *7:5 34.5625
40 vco_2:p[6] *7:6 1.232142857142857
41 *7:6 *7:7 40.875
42 *7:7 *7:4 0.4107142857142857
43 *7:8 *7:9 3.2857142857142856
44 *7:1 *7:9 44.44642857142857
45 *7:8 *7:10 141.79464285714283
46 *7:11 *7:12 88.30357142857143
47 *7:13 *7:14 108.42857142857142
48 *7:11 *7:2 0
49 *7:12 *7:5 0
50 *7:13 *7:15 0
51 *7:14 *7:10 0
*END

*D_NET *8 0
*CONN
*P analog_io[17] O
*CAP
*RES
*END

*D_NET *9 0
*CONN
*P analog_io[18] O
*CAP
*RES
*END

*D_NET *10 0
*CONN
*P analog_io[19] O
*CAP
*RES
*END

*D_NET *11 0
*CONN
*P analog_io[1] O
*CAP
*RES
*END

*D_NET *12 0
*CONN
*P analog_io[20] O
*CAP
*RES
*END

*D_NET *13 0
*CONN
*P analog_io[21] O
*CAP
*RES
*END

*D_NET *14 0
*CONN
*P analog_io[22] O
*CAP
*RES
*END

*D_NET *15 0
*CONN
*P analog_io[23] O
*CAP
*RES
*END

*D_NET *16 0
*CONN
*P analog_io[24] O
*CAP
*RES
*END

*D_NET *17 0
*CONN
*P analog_io[25] O
*CAP
*RES
*END

*D_NET *18 0
*CONN
*P analog_io[26] O
*CAP
*RES
*END

*D_NET *19 0
*CONN
*P analog_io[27] O
*CAP
*RES
*END

*D_NET *20 0
*CONN
*P analog_io[28] O
*CAP
*RES
*END

*D_NET *21 0
*CONN
*P analog_io[2] O
*CAP
*RES
*END

*D_NET *22 0
*CONN
*P analog_io[3] O
*CAP
*RES
*END

*D_NET *23 0
*CONN
*P analog_io[4] O
*CAP
*RES
*END

*D_NET *24 0
*CONN
*P analog_io[5] O
*CAP
*RES
*END

*D_NET *25 0
*CONN
*P analog_io[6] O
*CAP
*RES
*END

*D_NET *26 0
*CONN
*P analog_io[7] O
*CAP
*RES
*END

*D_NET *27 0
*CONN
*P analog_io[8] O
*CAP
*RES
*END

*D_NET *28 0.01934985685778
*CONN
*P analog_io[9] O
*I vco_0:input_analog I
*CAP
37 *28:1 0.0009114835544999999
38 *28:3 0.006723904897180001
39 *28:5 0.010419491072319998
40 *28:7 0.0012949773337799998
41 *28:6 0
*RES
52 *28:1 *28:2 1.6215
53 *28:3 *28:4 76.95535714285714
54 *28:5 *28:6 109.66071428571426
55 *28:7 *28:8 14.723214285714283
56 *28:3 *28:2 0
57 *28:5 *28:4 0
58 *28:6 *28:7 0
*END

*D_NET *29 0.24990314903490007
*CONN
*P io_in[0] I
*I vco_adc_wrapper_1:io_in[0] I
*CAP
42 *29:1 0.0014239089770999999
43 *29:3 0.14472459530146004
44 vco_adc_wrapper_1:io_in[0] 0.00012974410066
45 *29:6 0.10362490065568002
46 *29:7 0
*RES
59 *29:1 *29:2 2.5583666666666667
60 *29:3 *29:4 1658.8660714285713
61 vco_adc_wrapper_1:io_in[0] *29:5 1.3660714285714284
62 *29:6 *29:7 1091.6785714285713
63 *29:3 *29:1 0
64 *29:7 *29:4 0
65 *29:6 *29:5 0
*END

*D_NET *30 0.11759152736066
*CONN
*P io_in[10] I
*I vco_adc_wrapper_1:io_in[10] I
*CAP
47 *30:1 0.00052698270286
48 *30:3 0.0014633263173
49 vco_adc_wrapper_1:io_in[10] 0.00081829101114
50 *30:6 0.0003621946806399999
51 *30:8 0.0299358805524
52 *30:10 0.08448485209632
53 *30:11 0
54 *30:2 0
55 *30:7 0
*RES
66 *30:1 *30:2 5.919642857142857
67 *30:3 *30:4 2.6304333333333334
68 vco_adc_wrapper_1:io_in[10] *30:5 9.25892857142857
69 *30:6 *30:7 3.6964285714285707
70 *30:8 *30:9 343.0357142857142
71 *30:10 *30:11 890.0178571428571
72 *30:11 *30:1 0
73 *30:2 *30:3 0
74 *30:6 *30:5 0
75 *30:7 *30:8 0
76 *30:10 *30:9 0
*END

*D_NET *31 0.1364206467629
*CONN
*P io_in[11] I
*I vco_adc_wrapper_1:io_in[11] I
*CAP
56 vco_adc_wrapper_1:io_in[11] 0.00015388997648
57 *31:1 0.0022553600720400004
58 *31:2 8.223124824000001e-05
59 *31:3 0.04947300968766
60 *31:5 0.00026215696806
61 *31:7 0.0014633263173
62 *31:9 0.08273067249312
63 *31:10 0
64 *31:6 0
*RES
77 vco_adc_wrapper_1:io_in[11] *31:1 1.6428571428571428
78 *31:1 *31:2 25.732142857142854
79 *31:2 *31:3 0.8214285714285714
80 *31:3 *31:4 566.9910714285713
81 *31:5 *31:6 2.883928571428571
82 *31:7 *31:8 2.6304333333333334
83 *31:9 *31:10 871.5357142857142
84 *31:9 *31:4 0
85 *31:10 *31:5 0
86 *31:6 *31:7 0
*END

*D_NET *32 0.15519424134174
*CONN
*P io_in[12] I
*I vco_adc_wrapper_1:io_in[12] I
*CAP
65 *32:1 0.00047401755590000005
66 *32:3 0.0014633263173
67 vco_adc_wrapper_1:io_in[12] 0.00011806061236
68 *32:5 0.07216234396626
69 *32:7 0.08097649288992
70 *32:8 0
71 *32:2 0
*RES
87 *32:1 *32:2 5.3125
88 *32:3 *32:4 2.6304333333333334
89 vco_adc_wrapper_1:io_in[12] *32:5 1.232142857142857
90 *32:5 *32:6 827.0803571428571
91 *32:7 *32:8 853.0535714285713
92 *32:7 *32:6 0
93 *32:8 *32:1 0
94 *32:2 *32:3 0
*END

*D_NET *33 0.17405330486754
*CONN
*P io_in[13] I
*I vco_adc_wrapper_1:io_in[13] I
*CAP
72 *33:1 0.00020919182110000001
73 *33:3 0.0014633263173
74 vco_adc_wrapper_1:io_in[13] 0.08264944306434002
75 *33:6 0.02043780569504
76 *33:8 0.05879586635167999
77 *33:10 0.010497671618079997
78 *33:7 0
79 *33:2 0
80 *33:9 0
*RES
95 *33:1 *33:2 2.276785714285714
96 *33:3 *33:4 2.6304333333333334
97 vco_adc_wrapper_1:io_in[13] *33:5 947.2946428571428
98 *33:6 *33:7 215.2142857142857
99 *33:8 *33:9 619.3571428571428
100 *33:10 *33:11 120.2142857142857
101 *33:7 *33:1 0
102 *33:2 *33:3 0
103 *33:8 *33:5 0
104 *33:6 *33:11 0
105 *33:9 *33:10 0
*END

*D_NET *34 0.19307693043318
*CONN
*P io_in[14] I
*I vco_adc_wrapper_1:io_in[14] I
*CAP
81 *34:1 0.00010326152718000001
82 *34:3 0.0014633263173
83 vco_adc_wrapper_1:io_in[14] 0.0011095993194200002
84 *34:6 0.0004791399875199999
85 *34:8 0.11303819613264
86 *34:10 0.07688340714912
87 *34:11 0
88 *34:7 0
*RES
106 *34:1 *34:2 1.0624999999999998
107 *34:3 *34:4 2.6304333333333334
108 vco_adc_wrapper_1:io_in[14] *34:5 12.598214285714285
109 *34:6 *34:7 4.928571428571428
110 *34:8 *34:9 1295.6428571428569
111 *34:10 *34:11 809.9285714285713
112 *34:11 *34:2 0
113 *34:1 *34:3 0
114 *34:6 *34:5 0
115 *34:7 *34:8 0
116 *34:10 *34:9 0
*END

*D_NET *35 0.19368173227768
*CONN
*P io_in[15] I
*I vco_adc_wrapper_1:io_in[15] I
*CAP
89 *35:1 0.0012949773337799998
90 *35:3 0.05563834306592
91 *35:5 0.01116014468256
92 vco_adc_wrapper_1:io_in[15] 0.00269855372822
93 *35:8 0.12288971346720001
94 *35:6 0
95 *35:4 0
*RES
117 *35:1 *35:2 14.723214285714283
118 *35:3 *35:4 586.0892857142857
119 *35:5 *35:6 117.46428571428571
120 vco_adc_wrapper_1:io_in[15] *35:7 30.812499999999996
121 *35:8 *35:9 1408.5714285714284
122 *35:6 *35:1 0
123 *35:3 *35:7 0
124 *35:4 *35:8 0
125 *35:5 *35:9 0
*END

*D_NET *36 0.16431525790304002
*CONN
*P io_in[16] I
*I vco_adc_wrapper_1:io_in[16] I
*CAP
96 vco_adc_wrapper_1:io_in[16] 0.00015388997648
97 *36:1 0.0022553600720400004
98 *36:2 8.223124824000001e-05
99 *36:3 0.11154816192478002
100 *36:5 0.03688811219616
101 *36:7 0.005097563325820001
102 *36:8 0.00029720743296000006
103 *36:9 0.00799273172656
104 *36:6 0
*RES
126 vco_adc_wrapper_1:io_in[16] *36:1 1.6428571428571428
127 *36:1 *36:2 25.732142857142854
128 *36:2 *36:3 0.8214285714285714
129 *36:3 *36:4 1278.5625
130 *36:5 *36:6 388.5357142857143
131 *36:7 *36:8 58.3125
132 *36:8 *36:9 3.2857142857142856
133 *36:9 *36:10 91.5
134 *36:5 *36:4 0
135 *36:6 *36:7 0
*END

*D_NET *37 0.13488179172728001
*CONN
*P io_in[17] I
*I vco_adc_wrapper_1:io_in[17] I
*CAP
105 vco_adc_wrapper_1:io_in[17] 8.223124824000001e-05
106 *37:1 0.029392987796060005
107 *37:3 0.08949752500658002
108 *37:4 0.00022554870472
109 *37:5 0.00799273172656
110 *37:7 0.00769076724512
111 *37:8 0
*RES
136 vco_adc_wrapper_1:io_in[17] *37:1 0.8214285714285714
137 *37:1 *37:2 336.8125
138 *37:3 *37:4 1025.794642857143
139 *37:4 *37:5 2.464285714285714
140 *37:5 *37:6 91.5
141 *37:7 *37:8 80.91071428571428
142 *37:7 *37:2 0
143 *37:8 *37:3 0
*END

*D_NET *38 0.14826797143928
*CONN
*P io_in[18] I
*I vco_adc_wrapper_1:io_in[18] I
*CAP
112 *38:1 0.00028423114272
113 *38:3 0.12172448023408002
114 *38:5 0.0015333204951000002
115 *38:7 0.02110049576736
116 vco_adc_wrapper_1:io_in[18] 0.0036254438000200002
117 *38:2 0
118 *38:8 0
*RES
144 *38:1 *38:2 2.875
145 *38:3 *38:4 1395.2142857142858
146 *38:5 *38:6 17.455357142857142
147 *38:7 *38:8 222.19642857142856
148 vco_adc_wrapper_1:io_in[18] *38:9 41.43749999999999
149 *38:7 *38:3 0
150 *38:1 *38:5 0
151 *38:2 *38:4 0
152 *38:8 *38:9 0
*END

*D_NET *39 0.17762235877164
*CONN
*P io_in[19] I
*I vco_adc_wrapper_1:io_in[19] I
*CAP
119 *39:1 0.00028423114272
120 *39:3 0.050336822487359996
121 *39:5 0.02177924792056
122 *39:7 0.0015333204951000002
123 *39:9 0.10368873672590001
124 *39:2 0
125 *39:4 0
*RES
153 *39:1 *39:2 2.875
154 *39:3 *39:4 530.2321428571428
155 *39:5 *39:6 249.53571428571428
156 *39:7 *39:8 17.455357142857142
157 *39:9 vco_adc_wrapper_1:io_in[19] 1.232142857142857
158 *39:9 *39:10 1187.1160714285713
159 *39:3 *39:5 0
160 *39:1 *39:7 0
161 *39:2 *39:6 0
162 *39:4 *39:10 0
*END

*D_NET *40 0.23346358172325998
*CONN
*P io_in[1] I
*I vco_adc_wrapper_1:io_in[1] I
*CAP
126 *40:1 0.0013844916368999996
127 *40:3 0.12913960080848
128 vco_adc_wrapper_1:io_in[1] 0.00015388997648
129 *40:6 0.1027855993014
130 *40:4 0
131 *40:5 0
*RES
163 *40:1 *40:2 2.4863
164 *40:3 *40:4 1480.2142857142856
165 vco_adc_wrapper_1:io_in[1] *40:5 1.6428571428571428
166 *40:6 *40:7 187.8778
167 *40:3 *40:1 0
168 *40:4 *40:7 0
169 *40:5 *40:6 0
*END

*D_NET *41 0.20700436911296
*CONN
*P io_in[20] I
*I vco_adc_wrapper_1:io_in[20] I
*CAP
132 *41:1 0.00396971725526
133 *41:3 0.0024092500485200005
134 *41:5 0.12074039845014002
135 *41:7 0.07988500335903999
136 *41:8 0
*RES
170 *41:1 *41:2 45.38392857142856
171 *41:3 vco_adc_wrapper_1:io_in[20] 1.6428571428571428
172 *41:3 *41:4 25.732142857142854
173 *41:5 *41:4 0.8214285714285714
174 *41:5 *41:6 1382.9910714285713
175 *41:7 *41:8 841.5535714285713
176 *41:7 *41:1 0
177 *41:8 *41:6 0
*END

*D_NET *42 0.23637011520531997
*CONN
*P io_in[21] I
*I vco_adc_wrapper_1:io_in[21] I
*CAP
137 *42:1 0.0024092500485200005
138 *42:3 0.08056789227942
139 *42:5 0.00032321291168
140 *42:7 0.04272696354324
141 *42:9 0.0015333204951000002
142 *42:11 0.10880947592736
143 *42:12 0
144 *42:6 0
*RES
178 *42:1 vco_adc_wrapper_1:io_in[21] 1.6428571428571428
179 *42:1 *42:2 25.732142857142854
180 *42:3 *42:2 2.0535714285714284
181 *42:3 *42:4 921.2589285714284
182 *42:5 *42:6 3.2857142857142856
183 *42:7 *42:8 489.6607142857142
184 *42:9 *42:10 17.455357142857142
185 *42:11 *42:12 1146.3035714285713
186 *42:12 *42:4 0
187 *42:5 *42:9 0
188 *42:6 *42:8 0
189 *42:11 *42:7 0
*END

*D_NET *43 0.26571393001768
*CONN
*P io_in[22] I
*I vco_adc_wrapper_1:io_in[22] I
*CAP
145 *43:1 0.00032321291168
146 *43:3 0.011583457130760002
147 *43:5 0.0015333204951000002
148 *43:7 0.0024092500485200005
149 *43:9 0.11181888678426001
150 *43:10 0.13804580264736
151 *43:2 0
152 *43:11 0
*RES